Version 4
SHEET 1 880 680
WIRE -240 -480 -752 -480
WIRE -112 -480 -240 -480
WIRE 32 -480 -112 -480
WIRE -240 -448 -240 -480
WIRE 32 -448 32 -480
WIRE -240 -336 -240 -384
WIRE 32 -336 32 -368
WIRE 32 -336 -240 -336
WIRE -640 -320 -928 -320
WIRE -496 -320 -640 -320
WIRE -240 -320 -240 -336
WIRE -640 -176 -640 -320
WIRE -624 -176 -640 -176
WIRE -496 -176 -496 -320
WIRE -752 -48 -752 -480
WIRE -928 -32 -928 -320
WIRE -784 -32 -928 -32
WIRE -624 -16 -624 -112
WIRE -624 -16 -720 -16
WIRE -496 -16 -496 -96
WIRE -496 -16 -624 -16
WIRE -416 -16 -496 -16
WIRE -208 -16 -336 -16
WIRE -16 -16 -208 -16
WIRE -2080 16 -2240 16
WIRE -1696 16 -2016 16
WIRE -1344 16 -1696 16
WIRE -1168 16 -1264 16
WIRE -1056 16 -1168 16
WIRE -784 16 -784 0
WIRE -784 16 -1056 16
WIRE -1696 64 -1696 16
WIRE -1168 64 -1168 16
WIRE -1056 64 -1056 16
WIRE -928 64 -928 -32
WIRE -2240 80 -2240 16
WIRE -208 96 -208 -16
WIRE -2240 224 -2240 160
WIRE -1696 224 -1696 144
WIRE -1696 224 -2240 224
WIRE -1168 224 -1168 128
WIRE -1168 224 -1696 224
WIRE -1056 224 -1056 144
WIRE -1056 224 -1168 224
WIRE -928 224 -928 144
WIRE -928 224 -1056 224
WIRE -752 224 -752 16
WIRE -752 224 -928 224
WIRE -208 224 -208 160
WIRE -208 224 -752 224
WIRE -1168 304 -1168 224
FLAG -1168 304 0
FLAG -240 -320 0
FLAG -112 -480 +5V
FLAG -16 -16 ADC
SYMBOL res -1360 32 R270
WINDOW 0 32 56 VTop 2
WINDOW 3 0 56 VBottom 2
SYMATTR InstName R5
SYMATTR Value 10k
SYMBOL cap -1184 64 R0
SYMATTR InstName C1
SYMATTR Value 100n
SYMBOL res -1072 48 R0
SYMATTR InstName R1
SYMATTR Value 100k
SYMBOL res -944 48 R0
SYMATTR InstName R2
SYMATTR Value 1k
SYMBOL OpAmps\\LTC1050 -752 -80 R0
SYMATTR InstName U1
SYMBOL current -1696 144 R180
WINDOW 0 24 80 Left 2
WINDOW 3 24 0 Left 2
WINDOW 123 24 -28 Left 2
WINDOW 39 0 0 Left 0
SYMATTR InstName I1
SYMATTR Value PULSE(50n 100n 1 0.1 0.1 2)
SYMATTR Value2 AC 1 0
SYMBOL res -320 -32 R90
WINDOW 0 0 56 VBottom 2
WINDOW 3 32 56 VTop 2
SYMATTR InstName R6
SYMATTR Value 1k
SYMBOL cap -224 96 R0
SYMATTR InstName C2
SYMATTR Value 100n
SYMBOL cap -640 -176 R0
SYMATTR InstName C4
SYMATTR Value 1µ
SYMBOL res -512 -192 R0
SYMATTR InstName R3
SYMATTR Value 100k
SYMBOL cap -256 -448 R0
SYMATTR InstName C3
SYMATTR Value 100n
SYMBOL voltage 32 -464 R0
WINDOW 123 0 0 Left 0
WINDOW 39 0 0 Left 0
SYMATTR InstName V1
SYMATTR Value 5
SYMBOL voltage -2240 64 R0
WINDOW 123 0 0 Left 0
WINDOW 39 24 124 Left 2
SYMATTR InstName V2
SYMATTR Value SINE(0 325 50)
SYMBOL cap -2016 0 R90
WINDOW 0 0 32 VBottom 2
WINDOW 3 32 32 VTop 2
SYMATTR InstName C5
SYMATTR Value 1p
TEXT -1816 -136 Left 2 !.tran 4
TEXT -1792 -72 Left 2 !;ac dec 200 1 1G
